**** Analysis Setup ****

**** 02/24/17 15:37:22 ****** PSpice 17.2.0 (March 2016) ****** ID# 0 ********

 ** Profile: "LowPassButt_Type2_Pspice-BodePlot"  [ C:\Users\mcarberry\Documents\GitHub\FilterTesting\cadence\FilterTests\FilterTests


 ****     CIRCUIT DESCRIPTION


******************************************************************************




** Creating circuit file "BodePlot.cir" 
** WARNING: THIS AUTOMATICALLY GENERATED FILE MAY BE OVERWRITTEN BY SUBSEQUENT SIMULATIONS

*Libraries: 
* Profile Libraries :
* Local Libraries :
* From [PSPICE NETLIST] section of C:\Users\mcarberry\AppData\Roaming\SPB_16.6\cdssetup\OrCAD_PSpice\17.2.0\PSpice.ini file:
.lib "nom.lib" 

*Analysis directives: 
.AC DEC 1000 10Meg 100Meg
.OPTIONS ADVCONV
.PROBE64 V(alias(*)) I(alias(*)) W(alias(*)) D(alias(*)) NOISE(alias(*)) 
.INC "..\LowPassButt_Type2_Pspice.net" 



**** INCLUDING LowPassButt_Type2_Pspice.net ****
* source FILTERTESTS
R_R0         N01702 N01963  50 TC=0,0 
C_C1         0 N01963 C_C1 109.8pF  TC=0,0 
.model        C_C1 CAP C=1 DEV=5% TC1=0 TC2=0 VC1=0 VC2=0
L_L2         N01508 N01963 L_L2 0.549uH  
.model        l_L2 IND L=1 DEV=5% TC1=0 TC2=0 IL1=0 IL2=0
V_V1         N01702 0 DC 0Vdc AC 1Vac 
R_R4         0 N01508  50 TC=0,0 
C_C3         0 N01508 C_C3 109.8pF  TC=0,0 
.model        C_C3 CAP C=1 DEV=5% TC1=0 TC2=0 VC1=0 VC2=0

**** RESUMING BodePlot.cir ****
.END

**** 02/24/17 15:37:22 ****** PSpice 17.2.0 (March 2016) ****** ID# 0 ********

 ** Profile: "LowPassButt_Type2_Pspice-BodePlot"  [ C:\Users\mcarberry\Documents\GitHub\FilterTesting\cadence\FilterTests\FilterTests


 ****     Capacitor MODEL PARAMETERS


******************************************************************************




               C_C1            C_C3            
           C    1               1            


**** 02/24/17 15:37:22 ****** PSpice 17.2.0 (March 2016) ****** ID# 0 ********

 ** Profile: "LowPassButt_Type2_Pspice-BodePlot"  [ C:\Users\mcarberry\Documents\GitHub\FilterTesting\cadence\FilterTests\FilterTests


 ****     Inductor MODEL PARAMETERS


******************************************************************************




               L_L2            
           L    1            

