
**** 02/22/17 15:55:17 ****** PSpice 17.2.0 (March 2016) ****** ID# 0 ********

 ** Profile: "BandPassButt_Type1-BodePlot"  [ c:\users\mcarberry\documents\github\filter_testing\cadence\filtertests\filtertests-PSpi


 ****     CIRCUIT DESCRIPTION


******************************************************************************




** Creating circuit file "BodePlot.cir" 
** WARNING: THIS AUTOMATICALLY GENERATED FILE MAY BE OVERWRITTEN BY SUBSEQUENT SIMULATIONS

*Libraries: 
* Profile Libraries :
* Local Libraries :
* From [PSPICE NETLIST] section of C:\Users\mcarberry\AppData\Roaming\SPB_16.6\cdssetup\OrCAD_PSpice\17.2.0\PSpice.ini file:
.lib "nom.lib" 

*Analysis directives: 
.AC DEC 1000 10Meg 100Meg
.OPTIONS ADVCONV
.PROBE64 V(alias(*)) I(alias(*)) W(alias(*)) D(alias(*)) NOISE(alias(*)) 
.INC "..\BandPassButt_Type1.net" 



**** INCLUDING BandPassButt_Type1.net ****
* source FILTERTESTS
V_V1         N02229 0 DC 0Vdc AC 1Vac 
C_C3         N02285 N026650  5.30pF  TC=0,0 
L_L3         N02751 0  6.63nH  
R_R0         N02229 N022170  50 TC=0,0 
R_R4         0 N02285  50 TC=0,0 
C_C1         N02751 N025100  5.30pF  TC=0,0 
C_C2         0 N02751  4.55nF  TC=0,0 
L_L1         N025100 N022170  5.68uH  
L_L4         N026650 N02751  5.68uH  

**** RESUMING BodePlot.cir ****
.END

**** 02/22/17 15:55:17 ****** PSpice 17.2.0 (March 2016) ****** ID# 0 ********

 ** Profile: "BandPassButt_Type1-BodePlot"  [ c:\users\mcarberry\documents\github\filter_testing\cadence\filtertests\filtertests-PSpi


 ****     SMALL SIGNAL BIAS SOLUTION       TEMPERATURE =   27.000 DEG C


******************************************************************************



 NODE   VOLTAGE     NODE   VOLTAGE     NODE   VOLTAGE     NODE   VOLTAGE


(N02229)    0.0000 (N02285)    0.0000 (N02751)    0.0000 (N022170)    0.0000    

(N025100)    0.0000                   (N026650)    0.0000                   




    VOLTAGE SOURCE CURRENTS
    NAME         CURRENT

    V_V1         0.000E+00

    TOTAL POWER DISSIPATION   0.00E+00  WATTS



          JOB CONCLUDED

**** 02/22/17 15:55:17 ****** PSpice 17.2.0 (March 2016) ****** ID# 0 ********

 ** Profile: "BandPassButt_Type1-BodePlot"  [ c:\users\mcarberry\documents\github\filter_testing\cadence\filtertests\filtertests-PSpi


 ****     JOB STATISTICS SUMMARY


******************************************************************************



  Total job time (using Solver 1)   =         .03
